
#======================================================================
# CRYSTAL DATA
#----------------------------------------------------------------------
data_VESTA_phase_1

_chemical_name_common                  'PDB File'
_cell_length_a                         11.911249
_cell_length_b                         11.911249
_cell_length_c                         11.911249
_cell_angle_alpha                      90.000000
_cell_angle_beta                       90.000000
_cell_angle_gamma                      90.000000
_cell_volume                           1.000000
_space_group_name_H-M_alt              'P 1'
_space_group_IT_number                 1

loop_
_space_group_symop_operation_xyz
   'x, y, z'

loop_
   _atom_site_label
   _atom_site_occupancy
   _atom_site_fract_x
   _atom_site_fract_y
   _atom_site_fract_z
   _atom_site_adp_type
   _atom_site_U_iso_or_equiv
   _atom_site_type_symbol
   N          1.0     0.609183     0.838126     0.721387    Uiso 60.720001 N
   CA         1.0     0.657204     0.738304     0.669168    Uiso 61.680000 C
   C          1.0     0.670469     0.754171     0.542985    Uiso 60.709999 C
   O          1.0     0.590713     0.785654     0.484888    Uiso 57.560001 O
   CB         1.0     0.583828     0.634453     0.693179    Uiso 55.590000 C
   OG         1.0     0.480145     0.638651     0.635418    Uiso 57.360001 O
   H01        1.0     0.659051     0.863564     0.785025    Uiso 60.720001 H
   H02        1.0     0.603054     0.900000     0.663795    Uiso 60.720001 H
   H03        1.0     0.740151     0.725039     0.705520    Uiso 61.680000 H
   H04        1.0     0.751317     0.737549     0.503526    Uiso 60.709999 H
   H05        1.0     0.566030     0.632690     0.782926    Uiso 55.590000 H
   H06        1.0     0.629248     0.559482     0.666985    Uiso 55.590000 H
   H07        1.0     0.452272     0.563763     0.624588    Uiso 57.360001 H
   N          1.0     0.636804     0.321304     0.387165    Uiso 49.270000 N
   CA         1.0     0.521198     0.281173     0.370375    Uiso 47.200001 C
   C          1.0     0.524557     0.172285     0.303379    Uiso 47.709999 C
   O          1.0     0.458988     0.100000     0.328733    Uiso 46.009998 O
   CB         1.0     0.455126     0.366639     0.303127    Uiso 48.650002 C
   CG         1.0     0.372180     0.433802     0.371046    Uiso 53.110001 C
   CD         1.0     0.364876     0.552513     0.329069    Uiso 53.700001 C
   NE2        1.0     0.294270     0.571067     0.246962    Uiso 54.000000 N
   OE1        1.0     0.421041     0.626561     0.370627    Uiso 49.919998 O
   H01        1.0     0.665180     0.295110     0.462640    Uiso 49.270000 H
   H02        1.0     0.481740     0.268244     0.451978    Uiso 47.200001 H
   H03        1.0     0.584248     0.160447     0.235040    Uiso 47.709999 H
   H04        1.0     0.406433     0.319456     0.241673    Uiso 48.650002 H
   H05        1.0     0.514314     0.424735     0.264592    Uiso 48.650002 H
   H06        1.0     0.400388     0.435397     0.458107    Uiso 53.110001 H
   H07        1.0     0.289653     0.394680     0.364834    Uiso 53.110001 H
   H08        1.0     0.638063     0.406013     0.384311    Uiso 49.270000 H
   H09        1.0     0.285371     0.649313     0.215563    Uiso 54.000000 H
   H10        1.0     0.248683     0.507094     0.214975    Uiso 54.000000 H
